<additional>

    <poly id="building_13914322317970589934"
          type="building"
          color="0.6,0.6,0.6"
          fill="1"
          layer="1"
          shape="304.14,11.27 303.05,13.15 304.02,13.71 305.11,11.83"/>

    <poly id="building_11917469800758174349"
          type="building"
          color="0.6,0.6,0.6"
          fill="1"
          layer="1"
          shape="31.84,116.32 34.02,116.32 34.02,115.20 31.84,115.20"/>

    <poly id="building_11282433653665041874"
          type="building"
          color="0.6,0.6,0.6"
          fill="1"
          layer="1"
          shape="159.53,4.78 155.07,4.78 155.07,6.72 159.53,6.72"/>

    <poly id="building_1323511436800775095"
          type="building"
          color="0.6,0.6,0.6"
          fill="1"
          layer="1"
          shape="163.88,4.78 159.42,4.78 159.42,6.72 163.88,6.72"/>

    <poly id="building_17417343498420407938"
          type="building"
          color="0.6,0.6,0.6"
          fill="1"
          layer="1"
          shape="237.92,34.48 237.92,30.02 235.98,30.02 235.98,34.48"/>

    <poly id="building_17195595310132357682"
          type="building"
          color="0.6,0.6,0.6"
          fill="1"
          layer="1"
          shape="237.92,30.03 237.92,25.57 235.98,25.57 235.98,30.03"/>

    <poly id="building_1866455220475297686"
          type="building"
          color="0.6,0.6,0.6"
          fill="1"
          layer="1"
          shape="104.73,209.77 103.06,212.68 104.74,213.65 106.42,210.75"/>

    <poly id="building_7858370826556724164"
          type="building"
          color="0.6,0.6,0.6"
          fill="1"
          layer="1"
          shape="103.74,80.89 103.84,85.36 105.78,85.31 105.68,80.84"/>

    <poly id="building_9839492336245444151"
          type="building"
          color="0.6,0.6,0.6"
          fill="1"
          layer="1"
          shape="180.64,297.00 176.18,297.00 176.18,298.94 180.64,298.94"/>

    <poly id="building_16598580861227478283"
          type="building"
          color="0.6,0.6,0.6"
          fill="1"
          layer="1"
          shape="98.12,110.52 97.96,114.99 99.90,115.06 100.06,110.59"/>

    <poly id="building_6486552435840788685"
          type="building"
          color="0.6,0.6,0.6"
          fill="1"
          layer="1"
          shape="155.13,4.78 150.67,4.78 150.67,6.72 155.13,6.72"/>

    <poly id="building_875570028885895999"
          type="building"
          color="0.6,0.6,0.6"
          fill="1"
          layer="1"
          shape="150.12,83.60 161.90,81.53 160.15,71.62 148.37,73.70"/>

    <poly id="building_16967364425501852300"
          type="building"
          color="0.6,0.6,0.6"
          fill="1"
          layer="1"
          shape="12.76,38.16 12.76,50.12 22.82,50.12 22.82,38.16"/>

    <poly id="building_15078686854774132296"
          type="building"
          color="0.6,0.6,0.6"
          fill="1"
          layer="1"
          shape="189.55,15.11 197.21,15.11 197.21,5.27 189.55,5.27"/>

    <poly id="building_14816790025711167271"
          type="building"
          color="0.6,0.6,0.6"
          fill="1"
          layer="1"
          shape="185.42,5.69 177.00,5.69 177.00,14.29 185.42,14.29"/>

    <poly id="building_16504153681825533941"
          type="building"
          color="0.6,0.6,0.6"
          fill="1"
          layer="1"
          shape="59.24,117.23 64.34,117.23 64.34,109.55 59.24,109.55"/>

    <poly id="building_9272118926610916559"
          type="building"
          color="0.6,0.6,0.6"
          fill="1"
          layer="1"
          shape="64.34,117.23 69.44,117.23 69.44,109.55 64.34,109.55"/>

    <poly id="building_7909771295704553758"
          type="building"
          color="0.6,0.6,0.6"
          fill="1"
          layer="1"
          shape="54.14,117.23 59.24,117.23 59.24,109.55 54.14,109.55"/>

    <poly id="building_5032235129582138146"
          type="building"
          color="0.6,0.6,0.6"
          fill="1"
          layer="1"
          shape="59.24,117.23 64.34,117.23 64.34,109.55 59.24,109.55"/>

    <poly id="building_6188088437911412544"
          type="building"
          color="0.6,0.6,0.6"
          fill="1"
          layer="1"
          shape="64.34,117.23 69.44,117.23 69.44,109.55 64.34,109.55"/>

    <poly id="building_15018689431329750031"
          type="building"
          color="0.6,0.6,0.6"
          fill="1"
          layer="1"
          shape="54.14,117.23 59.24,117.23 59.24,109.55 54.14,109.55"/>

    <poly id="building_11463739653881581868"
          type="building"
          color="0.6,0.6,0.6"
          fill="1"
          layer="1"
          shape="69.58,39.38 75.00,39.38 75.00,32.20 69.58,32.20"/>

    <poly id="building_8493585665342043163"
          type="building"
          color="0.6,0.6,0.6"
          fill="1"
          layer="1"
          shape="53.79,116.56 69.39,116.56 69.39,109.72 53.79,109.72"/>

    <poly id="building_3422768272677064048"
          type="building"
          color="0.6,0.6,0.6"
          fill="1"
          layer="1"
          shape="283.60,115.69 300.24,115.69 300.24,109.43 283.60,109.43"/>

    <poly id="building_13318133410504657540"
          type="building"
          color="0.6,0.6,0.6"
          fill="1"
          layer="1"
          shape="57.62,217.87 51.72,217.87 51.72,225.13 57.62,225.13"/>

    <poly id="building_5013641227964749517"
          type="building"
          color="0.6,0.6,0.6"
          fill="1"
          layer="1"
          shape="178.39,213.72 172.49,213.72 172.49,220.98 178.39,220.98"/>

    <poly id="building_4225868617745112868"
          type="building"
          color="0.6,0.6,0.6"
          fill="1"
          layer="1"
          shape="172.76,98.69 174.86,110.60 184.10,108.97 182.00,97.06"/>

    <poly id="building_14645011607293134230"
          type="building"
          color="0.6,0.6,0.6"
          fill="1"
          layer="1"
          shape="229.58,318.71 237.94,318.71 237.94,306.55 229.58,306.55"/>

    <poly id="building_12601332690272514851"
          type="building"
          color="0.6,0.6,0.6"
          fill="1"
          layer="1"
          shape="16.16,273.91 16.16,282.27 28.32,282.27 28.32,273.91"/>

    <poly id="building_15277022954691562214"
          type="building"
          color="0.6,0.6,0.6"
          fill="1"
          layer="1"
          shape="67.71,256.83 67.71,248.51 60.17,248.51 60.17,256.83"/>

    <poly id="building_15678535351399184566"
          type="building"
          color="0.6,0.6,0.6"
          fill="1"
          layer="1"
          shape="67.72,256.42 67.72,264.74 60.18,264.74 60.18,256.42"/>

    <poly id="building_8369847054979908281"
          type="building"
          color="0.6,0.6,0.6"
          fill="1"
          layer="1"
          shape="40.52,78.60 40.52,88.30 69.46,88.30 69.46,78.60"/>

    <poly id="building_6534595026684004895"
          type="building"
          color="0.6,0.6,0.6"
          fill="1"
          layer="1"
          shape="226.94,5.76 217.24,5.76 217.24,34.70 226.94,34.70"/>

    <poly id="building_8529483319183331920"
          type="building"
          color="0.6,0.6,0.6"
          fill="1"
          layer="1"
          shape="64.10,78.87 63.78,69.18 34.84,70.15 35.16,79.84"/>

    <poly id="building_12835210513565807270"
          type="building"
          color="0.6,0.6,0.6"
          fill="1"
          layer="1"
          shape="291.44,114.38 301.14,114.38 301.14,85.44 291.44,85.44"/>

    <poly id="building_13300416098271481517"
          type="building"
          color="0.6,0.6,0.6"
          fill="1"
          layer="1"
          shape="282.70,114.39 292.40,114.39 292.40,85.45 282.70,85.45"/>

    <poly id="building_14374787239986406688"
          type="building"
          color="0.6,0.6,0.6"
          fill="1"
          layer="1"
          shape="248.30,101.69 248.30,110.71 270.72,110.71 270.72,101.69"/>

    <poly id="building_11175497628823435045"
          type="building"
          color="0.6,0.6,0.6"
          fill="1"
          layer="1"
          shape="103.89,86.15 103.89,95.85 132.83,95.85 132.83,86.15"/>

    <poly id="building_15901923147003939120"
          type="building"
          color="0.6,0.6,0.6"
          fill="1"
          layer="1"
          shape="168.85,83.57 177.90,85.16 179.51,76.05 170.46,74.46"/>

    <poly id="building_15979578947630331403"
          type="building"
          color="0.6,0.6,0.6"
          fill="1"
          layer="1"
          shape="246.71,223.89 246.71,213.91 228.69,213.91 228.69,223.89"/>

    <poly id="building_2508647221385886914"
          type="building"
          color="0.6,0.6,0.6"
          fill="1"
          layer="1"
          shape="98.93,117.13 108.12,117.13 108.12,107.87 98.93,107.87"/>

    <poly id="building_16145100025076713907"
          type="building"
          color="0.6,0.6,0.6"
          fill="1"
          layer="1"
          shape="11.81,50.04 11.81,59.24 21.07,59.24 21.07,50.04"/>

    <poly id="building_1329715797729600269"
          type="building"
          color="0.6,0.6,0.6"
          fill="1"
          layer="1"
          shape="60.46,30.49 60.46,39.69 69.72,39.69 69.72,30.49"/>

    <poly id="building_4339246734159681182"
          type="building"
          color="0.6,0.6,0.6"
          fill="1"
          layer="1"
          shape="78.63,114.94 78.63,102.84 69.25,102.84 69.25,114.94"/>

    <poly id="building_5927462332418798057"
          type="building"
          color="0.6,0.6,0.6"
          fill="1"
          layer="1"
          shape="50.33,42.24 50.33,30.14 40.95,30.14 40.95,42.24"/>

    <poly id="building_5658706111513383109"
          type="building"
          color="0.6,0.6,0.6"
          fill="1"
          layer="1"
          shape="72.74,214.56 60.64,214.56 60.64,223.94 72.74,223.94"/>

    <poly id="building_13282750892890529078"
          type="building"
          color="0.6,0.6,0.6"
          fill="1"
          layer="1"
          shape="53.92,314.24 62.38,314.24 62.38,308.98 53.92,308.98"/>

    <poly id="building_4554742259992697690"
          type="building"
          color="0.6,0.6,0.6"
          fill="1"
          layer="1"
          shape="235.62,46.86 247.53,48.96 245.90,58.20 233.99,56.10"/>

    <poly id="building_5125348490039774650"
          type="building"
          color="0.6,0.6,0.6"
          fill="1"
          layer="1"
          shape="291.86,314.96 312.02,314.96 312.02,302.72 291.86,302.72"/>

    <poly id="building_6621491614516604474"
          type="building"
          color="0.6,0.6,0.6"
          fill="1"
          layer="1"
          shape="167.45,296.52 167.45,313.72 183.37,313.72 183.37,296.52"/>

    <poly id="building_17589197682421911720"
          type="building"
          color="0.6,0.6,0.6"
          fill="1"
          layer="1"
          shape="111.08,259.95 108.33,259.95 108.33,262.27 111.08,262.27"/>

    <poly id="building_11837976410759476482"
          type="building"
          color="0.6,0.6,0.6"
          fill="1"
          layer="1"
          shape="301.58,48.64 303.15,46.40 301.25,45.07 299.68,47.32"/>

    <poly id="building_5995245494661990919"
          type="building"
          color="0.6,0.6,0.6"
          fill="1"
          layer="1"
          shape="150.11,3.34 150.11,16.54 170.25,16.54 170.25,3.34"/>

    <poly id="building_1833976561366926371"
          type="building"
          color="0.6,0.6,0.6"
          fill="1"
          layer="1"
          shape="293.07,57.98 293.07,71.19 313.21,71.19 313.21,57.98"/>

    <poly id="building_7599148521856386308"
          type="building"
          color="0.6,0.6,0.6"
          fill="1"
          layer="1"
          shape="120.28,15.37 107.08,15.37 107.08,35.51 120.28,35.51"/>

    <poly id="building_15156910975985250803"
          type="building"
          color="0.6,0.6,0.6"
          fill="1"
          layer="1"
          shape="21.49,6.60 21.49,19.80 41.63,19.80 41.63,6.60"/>

    <poly id="building_11363837420092922705"
          type="building"
          color="0.6,0.6,0.6"
          fill="1"
          layer="1"
          shape="251.00,116.28 252.04,116.28 252.04,115.66 251.00,115.66"/>

    <poly id="building_8796291635630353587"
          type="building"
          color="0.6,0.6,0.6"
          fill="1"
          layer="1"
          shape="274.30,116.29 275.44,116.29 275.44,115.67 274.30,115.67"/>

    <poly id="building_16816608433148004540"
          type="building"
          color="0.6,0.6,0.6"
          fill="1"
          layer="1"
          shape="234.51,13.88 233.37,13.88 233.37,14.50 234.51,14.50"/>

    <poly id="building_14064113038345408702"
          type="building"
          color="0.6,0.6,0.6"
          fill="1"
          layer="1"
          shape="180.65,114.81 180.65,115.86 181.27,115.86 181.27,114.81"/>

    <poly id="building_10777186102540561003"
          type="building"
          color="0.6,0.6,0.6"
          fill="1"
          layer="1"
          shape="146.45,216.84 146.45,217.70 146.91,217.70 146.91,216.84"/>

    <poly id="building_109404969101848284"
          type="building"
          color="0.6,0.6,0.6"
          fill="1"
          layer="1"
          shape="13.60,55.88 13.60,56.93 14.22,56.93 14.22,55.88"/>

    <poly id="building_13919706355206692813"
          type="building"
          color="0.6,0.6,0.6"
          fill="1"
          layer="1"
          shape="180.65,111.21 180.65,112.26 181.27,112.26 181.27,111.22"/>

    <poly id="building_8875567844300526560"
          type="building"
          color="0.6,0.6,0.6"
          fill="1"
          layer="1"
          shape="191.38,118.23 192.06,117.43 191.58,117.03 190.91,117.83"/>

    <poly id="building_13280439273049751053"
          type="building"
          color="0.6,0.6,0.6"
          fill="1"
          layer="1"
          shape="195.31,117.02 196.46,117.02 196.46,116.40 195.31,116.40"/>

    <poly id="building_7027248270279880214"
          type="building"
          color="0.6,0.6,0.6"
          fill="1"
          layer="1"
          shape="204.96,118.40 206.01,118.40 206.01,117.78 204.96,117.78"/>

    <poly id="building_396507785136762660"
          type="building"
          color="0.6,0.6,0.6"
          fill="1"
          layer="1"
          shape="212.72,118.40 213.77,118.40 213.77,117.78 212.72,117.78"/>

    <poly id="building_1791058438461563824"
          type="building"
          color="0.6,0.6,0.6"
          fill="1"
          layer="1"
          shape="255.71,118.54 256.76,118.54 256.76,117.93 255.71,117.93"/>

    <poly id="building_6331410533032949339"
          type="building"
          color="0.6,0.6,0.6"
          fill="1"
          layer="1"
          shape="249.68,112.52 249.68,113.67 250.30,113.67 250.30,112.52"/>

    <poly id="building_4825739119136907655"
          type="building"
          color="0.6,0.6,0.6"
          fill="1"
          layer="1"
          shape="266.03,118.54 267.08,118.54 267.08,117.93 266.03,117.93"/>

    <poly id="building_9168442795526570931"
          type="building"
          color="0.6,0.6,0.6"
          fill="1"
          layer="1"
          shape="266.03,118.54 267.08,118.54 267.08,117.93 266.03,117.93"/>

    <poly id="building_7603380261722013872"
          type="building"
          color="0.6,0.6,0.6"
          fill="1"
          layer="1"
          shape="279.53,118.58 280.67,118.58 280.67,117.96 279.53,117.96"/>

    <poly id="building_2351198650710530468"
          type="building"
          color="0.6,0.6,0.6"
          fill="1"
          layer="1"
          shape="283.39,119.72 283.91,118.81 283.38,118.51 282.85,119.41"/>

    <poly id="building_3378209537392866430"
          type="building"
          color="0.6,0.6,0.6"
          fill="1"
          layer="1"
          shape="304.14,114.75 304.62,113.71 304.06,113.45 303.58,114.49"/>

    <poly id="building_9658952051940765819"
          type="building"
          color="0.6,0.6,0.6"
          fill="1"
          layer="1"
          shape="312.45,113.63 312.45,112.59 311.83,112.59 311.83,113.63"/>

    <poly id="building_11003783826308613190"
          type="building"
          color="0.6,0.6,0.6"
          fill="1"
          layer="1"
          shape="8.79,117.38 8.79,118.52 9.41,118.52 9.41,117.38"/>

    <poly id="building_9335529473989802611"
          type="building"
          color="0.6,0.6,0.6"
          fill="1"
          layer="1"
          shape="8.79,121.30 8.79,122.44 9.41,122.44 9.41,121.30"/>

    <poly id="building_9367000698038926822"
          type="building"
          color="0.6,0.6,0.6"
          fill="1"
          layer="1"
          shape="31.73,121.28 31.54,120.15 30.93,120.26 31.13,121.38"/>

    <poly id="building_8001946047440092421"
          type="building"
          color="0.6,0.6,0.6"
          fill="1"
          layer="1"
          shape="7.63,76.52 7.63,77.56 8.25,77.56 8.25,76.52"/>

    <poly id="building_12963235126774093791"
          type="building"
          color="0.6,0.6,0.6"
          fill="1"
          layer="1"
          shape="27.07,123.82 28.12,123.82 28.12,123.20 27.07,123.20"/>

    <poly id="building_11526854682740590729"
          type="building"
          color="0.6,0.6,0.6"
          fill="1"
          layer="1"
          shape="27.07,123.82 28.12,123.82 28.12,123.20 27.07,123.20"/>

    <poly id="building_8963762090094885775"
          type="building"
          color="0.6,0.6,0.6"
          fill="1"
          layer="1"
          shape="252.91,216.75 252.91,217.89 253.53,217.89 253.53,216.75"/>

    <poly id="building_2848324874869860268"
          type="building"
          color="0.6,0.6,0.6"
          fill="1"
          layer="1"
          shape="11.39,60.72 11.39,61.76 12.01,61.76 12.01,60.72"/>

    <poly id="building_6881862029419753813"
          type="building"
          color="0.6,0.6,0.6"
          fill="1"
          layer="1"
          shape="237.09,11.67 237.09,10.53 236.47,10.53 236.47,11.67"/>

    <poly id="building_10809154773364354934"
          type="building"
          color="0.6,0.6,0.6"
          fill="1"
          layer="1"
          shape="237.09,11.67 237.09,10.53 236.47,10.53 236.47,11.67"/>

    <poly id="building_13268698501509613038"
          type="building"
          color="0.6,0.6,0.6"
          fill="1"
          layer="1"
          shape="237.09,11.67 237.09,10.53 236.47,10.53 236.47,11.67"/>

    <poly id="building_11977370981734517798"
          type="building"
          color="0.6,0.6,0.6"
          fill="1"
          layer="1"
          shape="234.51,13.88 233.37,13.88 233.37,14.50 234.51,14.50"/>

    <poly id="building_7190825644806080846"
          type="building"
          color="0.6,0.6,0.6"
          fill="1"
          layer="1"
          shape="234.51,13.88 233.37,13.88 233.37,14.50 234.51,14.50"/>

    <poly id="building_11885545293517267021"
          type="building"
          color="0.6,0.6,0.6"
          fill="1"
          layer="1"
          shape="166.17,138.43 161.67,138.43 161.67,141.47 166.17,141.47"/>

    <poly id="building_9176708239794298521"
          type="building"
          color="0.6,0.6,0.6"
          fill="1"
          layer="1"
          shape="314.18,72.11 313.78,67.62 310.76,67.89 311.15,72.38"/>

    <poly id="building_717117086035030276"
          type="building"
          color="0.6,0.6,0.6"
          fill="1"
          layer="1"
          shape="23.18,138.62 18.67,138.62 18.67,141.65 23.18,141.65"/>

    <poly id="building_10414408462541852182"
          type="building"
          color="0.6,0.6,0.6"
          fill="1"
          layer="1"
          shape="233.09,113.17 233.09,109.99 230.31,109.99 230.31,113.17"/>

    <poly id="building_16940328822270129468"
          type="building"
          color="0.6,0.6,0.6"
          fill="1"
          layer="1"
          shape="26.17,138.24 23.03,138.79 23.51,141.52 26.65,140.96"/>

    <poly id="building_10021680279151622983"
          type="building"
          color="0.6,0.6,0.6"
          fill="1"
          layer="1"
          shape="161.19,137.94 158.01,137.94 158.01,140.72 161.19,140.72"/>

    <poly id="building_11173070140565002502"
          type="building"
          color="0.6,0.6,0.6"
          fill="1"
          layer="1"
          shape="78.34,244.03 75.16,244.03 75.16,246.81 78.34,246.81"/>

    <poly id="building_656830051959624816"
          type="building"
          color="0.6,0.6,0.6"
          fill="1"
          layer="1"
          shape="315.88,9.03 313.44,6.98 311.66,9.11 314.10,11.16"/>

    <poly id="building_12609159375694411499"
          type="building"
          color="0.6,0.6,0.6"
          fill="1"
          layer="1"
          shape="18.58,138.79 15.44,138.24 14.95,140.96 18.10,141.52"/>

    <poly id="building_8413443568783985721"
          type="building"
          color="0.6,0.6,0.6"
          fill="1"
          layer="1"
          shape="29.47,138.24 26.33,138.79 26.81,141.52 29.95,140.96"/>

    <poly id="building_9291658537239585926"
          type="building"
          color="0.6,0.6,0.6"
          fill="1"
          layer="1"
          shape="219.99,290.30 237.03,290.30 237.03,280.56 219.99,280.56"/>

    <poly id="building_14923648093860802070"
          type="building"
          color="0.6,0.6,0.6"
          fill="1"
          layer="1"
          shape="100.04,311.84 117.08,311.84 117.08,302.10 100.04,302.10"/>

    <poly id="building_11453585248482765137"
          type="building"
          color="0.6,0.6,0.6"
          fill="1"
          layer="1"
          shape="167.68,236.31 167.69,245.80 180.21,245.80 180.21,236.31"/>

    <poly id="building_18018526672763803960"
          type="building"
          color="0.6,0.6,0.6"
          fill="1"
          layer="1"
          shape="203.09,248.03 230.39,248.03 230.39,234.85 203.09,234.85"/>

    <poly id="building_503294653765592978"
          type="building"
          color="0.6,0.6,0.6"
          fill="1"
          layer="1"
          shape="293.73,246.22 276.69,246.22 276.69,255.96 293.73,255.96"/>

    <poly id="building_3286178661054482554"
          type="building"
          color="0.6,0.6,0.6"
          fill="1"
          layer="1"
          shape="139.95,254.13 162.82,254.14 162.82,239.51 139.95,239.51"/>

    <poly id="building_17596823571612477846"
          type="building"
          color="0.6,0.6,0.6"
          fill="1"
          layer="1"
          shape="288.94,286.19 271.90,286.19 271.90,295.93 288.94,295.93"/>

    <poly id="building_8008119391347755661"
          type="building"
          color="0.6,0.6,0.6"
          fill="1"
          layer="1"
          shape="316.31,239.72 293.91,239.72 293.91,249.72 316.31,249.72"/>

    <poly id="building_5839400527856424479"
          type="building"
          color="0.6,0.6,0.6"
          fill="1"
          layer="1"
          shape="243.43,299.44 266.29,299.44 266.29,284.82 243.43,284.82"/>

    <poly id="building_6448173142945560985"
          type="building"
          color="0.6,0.6,0.6"
          fill="1"
          layer="1"
          shape="121.89,286.39 138.93,286.39 138.93,296.13 121.89,296.13"/>

    <poly id="building_1655395653560318295"
          type="building"
          color="0.6,0.6,0.6"
          fill="1"
          layer="1"
          shape="114.30,241.63 103.46,241.63 103.46,250.63 114.30,250.63"/>

    <poly id="building_486713605610735034"
          type="building"
          color="0.6,0.6,0.6"
          fill="1"
          layer="1"
          shape="263.38,212.34 253.02,212.34 253.02,222.06 263.38,222.06"/>

    <poly id="building_13878436250938004281"
          type="building"
          color="0.6,0.6,0.6"
          fill="1"
          layer="1"
          shape="149.31,117.84 155.26,109.34 147.29,103.76 141.34,112.26"/>

    <poly id="building_5003081453742811299"
          type="building"
          color="0.6,0.6,0.6"
          fill="1"
          layer="1"
          shape="6.04,78.62 6.04,88.98 15.76,88.98 15.76,78.62"/>

    <poly id="building_14486200929417724521"
          type="building"
          color="0.6,0.6,0.6"
          fill="1"
          layer="1"
          shape="98.23,90.36 98.23,91.98 99.89,91.98 99.89,90.36"/>

    <poly id="building_9378936936907598509"
          type="building"
          color="0.6,0.6,0.6"
          fill="1"
          layer="1"
          shape="36.86,117.25 46.56,117.25 46.56,88.31 36.86,88.31"/>

    <poly id="building_6697439317457243307"
          type="building"
          color="0.6,0.6,0.6"
          fill="1"
          layer="1"
          shape="59.68,115.85 69.38,115.85 69.38,86.91 59.68,86.91"/>

    <poly id="building_11565456148382617473"
          type="building"
          color="0.6,0.6,0.6"
          fill="1"
          layer="1"
          shape="54.14,115.86 63.84,115.86 63.84,86.92 54.14,86.92"/>

    <poly id="building_5934628345030532683"
          type="building"
          color="0.6,0.6,0.6"
          fill="1"
          layer="1"
          shape="76.59,42.67 66.89,42.67 66.89,71.61 76.59,71.61"/>

    <poly id="building_810277543485888630"
          type="building"
          color="0.6,0.6,0.6"
          fill="1"
          layer="1"
          shape="312.70,82.72 312.70,73.02 283.76,73.02 283.76,82.72"/>

    <poly id="building_17833148694243050733"
          type="building"
          color="0.6,0.6,0.6"
          fill="1"
          layer="1"
          shape="10.78,58.89 10.78,68.59 39.72,68.59 39.72,58.89"/>

    <poly id="building_8220978572502148853"
          type="building"
          color="0.6,0.6,0.6"
          fill="1"
          layer="1"
          shape="31.29,116.75 40.99,116.75 40.99,87.81 31.29,87.81"/>

    <poly id="building_15561457689256485381"
          type="building"
          color="0.6,0.6,0.6"
          fill="1"
          layer="1"
          shape="238.01,99.17 236.30,89.46 227.49,91.01 229.20,100.72"/>

    <poly id="building_1986511192280237255"
          type="building"
          color="0.6,0.6,0.6"
          fill="1"
          layer="1"
          shape="19.07,248.66 19.07,258.52 28.01,258.52 28.01,248.66"/>

    <poly id="building_2668267388861617750"
          type="building"
          color="0.6,0.6,0.6"
          fill="1"
          layer="1"
          shape="98.07,94.81 98.07,104.67 107.01,104.67 107.01,94.81"/>

    <poly id="building_272200486589917790"
          type="building"
          color="0.6,0.6,0.6"
          fill="1"
          layer="1"
          shape="25.01,82.71 34.87,82.71 34.87,73.77 25.01,73.77"/>

    <poly id="building_16321713738509459846"
          type="building"
          color="0.6,0.6,0.6"
          fill="1"
          layer="1"
          shape="213.04,116.39 229.68,116.39 229.68,109.55 213.04,109.55"/>

    <poly id="building_8953257633768378902"
          type="building"
          color="0.6,0.6,0.6"
          fill="1"
          layer="1"
          shape="213.04,116.39 229.68,116.39 229.68,109.55 213.04,109.55"/>

    <poly id="building_1933254461296551391"
          type="building"
          color="0.6,0.6,0.6"
          fill="1"
          layer="1"
          shape="213.04,116.39 229.68,116.39 229.68,109.55 213.04,109.55"/>

    <poly id="building_13859130505722543127"
          type="building"
          color="0.6,0.6,0.6"
          fill="1"
          layer="1"
          shape="213.04,116.39 229.68,116.39 229.68,109.55 213.04,109.55"/>

    <poly id="building_16351155208736103494"
          type="building"
          color="0.6,0.6,0.6"
          fill="1"
          layer="1"
          shape="213.21,113.02 229.51,113.02 229.51,112.92 213.21,112.92"/>

    <poly id="building_16439060319451531631"
          type="building"
          color="0.6,0.6,0.6"
          fill="1"
          layer="1"
          shape="213.21,113.02 229.51,113.02 229.51,112.92 213.21,112.92"/>

    <poly id="building_4433825695273279693"
          type="building"
          color="0.6,0.6,0.6"
          fill="1"
          layer="1"
          shape="82.87,38.72 82.87,28.86 75.61,28.86 75.61,38.72"/>

    <poly id="building_4455010366740180894"
          type="building"
          color="0.6,0.6,0.6"
          fill="1"
          layer="1"
          shape="82.87,38.72 82.87,28.86 75.61,28.86 75.61,38.72"/>

    <poly id="building_6139126663544055431"
          type="building"
          color="0.6,0.6,0.6"
          fill="1"
          layer="1"
          shape="83.01,38.86 83.01,28.72 75.47,28.72 75.47,38.86"/>

    <poly id="building_9410443861363796152"
          type="building"
          color="0.6,0.6,0.6"
          fill="1"
          layer="1"
          shape="83.01,38.86 83.01,28.72 75.47,28.72 75.47,38.86"/>

    <poly id="building_16359263090510896405"
          type="building"
          color="0.6,0.6,0.6"
          fill="1"
          layer="1"
          shape="82.83,38.70 82.83,28.88 75.65,28.88 75.65,38.70"/>

    <poly id="building_58749212331031508"
          type="building"
          color="0.6,0.6,0.6"
          fill="1"
          layer="1"
          shape="82.83,38.70 82.83,28.88 75.65,28.88 75.65,38.70"/>

    <poly id="building_16882123818510611726"
          type="building"
          color="0.6,0.6,0.6"
          fill="1"
          layer="1"
          shape="83.01,38.86 83.01,28.72 75.47,28.72 75.47,38.86"/>

    <poly id="building_16670705380119000895"
          type="building"
          color="0.6,0.6,0.6"
          fill="1"
          layer="1"
          shape="83.01,38.86 83.01,28.72 75.47,28.72 75.47,38.86"/>

    <poly id="building_8181271076262637852"
          type="building"
          color="0.6,0.6,0.6"
          fill="1"
          layer="1"
          shape="83.01,38.86 83.01,28.72 75.47,28.72 75.47,38.86"/>

    <poly id="building_14466805518494009503"
          type="building"
          color="0.6,0.6,0.6"
          fill="1"
          layer="1"
          shape="83.01,38.86 83.01,28.72 75.47,28.72 75.47,38.86"/>

    <poly id="building_14240892329834240575"
          type="building"
          color="0.6,0.6,0.6"
          fill="1"
          layer="1"